* NGSPICE file created from decoder_p_parax.ext - technology: sky130A

.subckt decoder_p n_d[1] n_d[3] n_d[4] n_d[6] y_d[0] y_d[1] y_d[2] y_d[3] y_d[4] y_d[5] y_d[6] y_d[7] in[0] in[2] n_d[5] n_d[0] in[1] n_d[2] n_d[7] VGND VPWR
X0 VPWR.t256 VGND.t504 VPWR.t255 VPWR.t254 sky130_fd_pr__pfet_01v8_hvt ad=0.2262 pd=2.26 as=0 ps=0 w=0.87 l=4.73
X1 _01_.t1 a_3707_3311# VPWR.t45 VPWR.t44 sky130_fd_pr__pfet_01v8_hvt ad=0.135 pd=1.27 as=0.1625 ps=1.325 w=1 l=0.15
X2 VGND.t66 a_3571_4074# net15 VGND.t65 sky130_fd_pr__nfet_01v8 ad=0.0754 pd=0.81 as=0.1352 ps=1.56 w=0.52 l=0.15
X3 a_3307_7379# net6 VGND.t356 VGND.t355 sky130_fd_pr__nfet_01v8 ad=0.1113 pd=1.37 as=0.07035 ps=0.755 w=0.42 l=0.15
X4 n_d[0].t7 a_2939_6549# VGND.t236 VGND.t24 sky130_fd_pr__nfet_01v8 ad=0.0588 pd=0.7 as=0.0588 ps=0.7 w=0.42 l=0.15
X5 VGND.t360 a_3019_7338# net18 VGND.t359 sky130_fd_pr__nfet_01v8 ad=0.0754 pd=0.81 as=0.1352 ps=1.56 w=0.52 l=0.15
X6 VGND.t208 a_3755_5639# _08_ VGND.t207 sky130_fd_pr__nfet_01v8 ad=0.122275 pd=1.08 as=0.169 ps=1.82 w=0.65 l=0.15
X7 VPWR.t276 a_2879_2223# y_d[0].t3 VPWR.t275 sky130_fd_pr__pfet_01v8_hvt ad=0.3 pd=2.6 as=0.14 ps=1.28 w=1 l=0.15
X8 VPWR.t61 a_5137_2388# net2 VPWR.t60 sky130_fd_pr__pfet_01v8_hvt ad=0.11455 pd=1.08 as=0.2054 ps=2.1 w=0.79 l=0.15
X9 _10_ a_3155_5056# VGND.t19 VGND.t18 sky130_fd_pr__nfet_01v8 ad=0.169 pd=1.82 as=0.13165 ps=1.14 w=0.65 l=0.15
X10 a_4031_6740# _05_ VPWR.t95 VPWR.t94 sky130_fd_pr__pfet_01v8_hvt ad=0.2054 pd=2.1 as=0.11455 ps=1.08 w=0.79 l=0.15
X11 VGND.t302 a_2387_7379# y_d[6].t7 VGND.t301 sky130_fd_pr__nfet_01v8 ad=0.0588 pd=0.7 as=0.0588 ps=0.7 w=0.42 l=0.15
X12 n_d[1].t7 a_3859_7379# VGND.t354 VGND.t353 sky130_fd_pr__nfet_01v8 ad=0.0588 pd=0.7 as=0.1218 ps=1.42 w=0.42 l=0.15
X13 a_3373_3561# _02_ a_3289_3561# VPWR.t398 sky130_fd_pr__pfet_01v8_hvt ad=0.135 pd=1.27 as=0.135 ps=1.27 w=1 l=0.15
X14 VPWR.t321 a_6099_7119# n_d[7].t3 VPWR.t320 sky130_fd_pr__pfet_01v8_hvt ad=0.3 pd=2.6 as=0.14 ps=1.28 w=1 l=0.15
X15 a_4509_6147# net2 a_4437_6147# VPWR.t23 sky130_fd_pr__pfet_01v8_hvt ad=0.06825 pd=0.745 as=0.0441 ps=0.63 w=0.42 l=0.15
X16 VPWR.t253 VGND.t505 VPWR.t252 VPWR.t251 sky130_fd_pr__pfet_01v8_hvt ad=0.2262 pd=2.26 as=0 ps=0 w=0.87 l=4.73
X17 a_4399_7338# _04_ VPWR.t379 VPWR.t378 sky130_fd_pr__pfet_01v8_hvt ad=0.2054 pd=2.1 as=0.11455 ps=1.08 w=0.79 l=0.15
X18 VGND.t346 VPWR.t491 VGND.t345 VGND.t95 sky130_fd_pr__nfet_01v8 ad=0.143 pd=1.62 as=0 ps=0 w=0.55 l=0.59
X19 VPWR.t397 _02_ a_3155_5056# VPWR.t396 sky130_fd_pr__pfet_01v8_hvt ad=0.142225 pd=1.335 as=0.06615 ps=0.735 w=0.42 l=0.15
X20 VGND.t404 _02_ a_5849_6147# VGND.t403 sky130_fd_pr__nfet_01v8 ad=0.10025 pd=0.985 as=0.1092 ps=1.36 w=0.42 l=0.15
X21 VGND.t286 a_4443_3855# _00_ VGND.t285 sky130_fd_pr__nfet_01v8 ad=0.1092 pd=1.36 as=0.0567 ps=0.69 w=0.42 l=0.15
X22 a_3148_4215# a_2961_3855# a_3061_3971# VGND.t429 sky130_fd_pr__nfet_01v8 ad=0.0441 pd=0.63 as=0.107825 ps=1.36 w=0.42 l=0.15
X23 VGND.t227 a_2879_2223# y_d[0].t7 VGND.t226 sky130_fd_pr__nfet_01v8 ad=0.1218 pd=1.42 as=0.0588 ps=0.7 w=0.42 l=0.15
X24 _05_ a_3619_6147# VGND.t461 VGND.t460 sky130_fd_pr__nfet_01v8 ad=0.17875 pd=1.85 as=0.10025 ps=0.985 w=0.65 l=0.15
X25 VGND.t435 a_2869_6147# a_2975_6147# VGND.t434 sky130_fd_pr__nfet_01v8 ad=0.0567 pd=0.69 as=0.1092 ps=1.36 w=0.42 l=0.15
X26 n_d[7].t2 a_6099_7119# VPWR.t319 VPWR.t318 sky130_fd_pr__pfet_01v8_hvt ad=0.14 pd=1.28 as=0.165 ps=1.33 w=1 l=0.15
X27 VGND.t469 a_2387_6549# y_d[7].t7 VGND.t468 sky130_fd_pr__nfet_01v8 ad=0.0588 pd=0.7 as=0.0588 ps=0.7 w=0.42 l=0.15
X28 VPWR.t329 a_2387_7379# y_d[6].t3 VPWR.t328 sky130_fd_pr__pfet_01v8_hvt ad=0.14 pd=1.28 as=0.14 ps=1.28 w=1 l=0.15
X29 VPWR.t360 net9 a_6651_7119# VPWR.t359 sky130_fd_pr__pfet_01v8_hvt ad=0.165 pd=1.33 as=0.265 ps=2.53 w=1 l=0.15
X30 VPWR.t250 VGND.t506 VPWR.t249 VPWR.t188 sky130_fd_pr__pfet_01v8_hvt ad=0.2262 pd=2.26 as=0 ps=0 w=0.87 l=0.59
X31 y_d[4].t3 a_2387_5461# VPWR.t420 VPWR.t419 sky130_fd_pr__pfet_01v8_hvt ad=0.14 pd=1.28 as=0.14 ps=1.28 w=1 l=0.15
X32 a_2939_6549# net4 VPWR.t434 VPWR.t433 sky130_fd_pr__pfet_01v8_hvt ad=0.265 pd=2.53 as=0.165 ps=1.33 w=1 l=0.15
X33 VPWR.t248 VGND.t507 VPWR.t247 VPWR.t230 sky130_fd_pr__pfet_01v8_hvt ad=0.2262 pd=2.26 as=0 ps=0 w=0.87 l=0.59
X34 VPWR.t373 net1 a_4509_6147# VPWR.t372 sky130_fd_pr__pfet_01v8_hvt ad=0.14825 pd=1.34 as=0.06825 ps=0.745 w=0.42 l=0.15
X35 VPWR.t438 a_2387_3027# y_d[2].t3 VPWR.t297 sky130_fd_pr__pfet_01v8_hvt ad=0.165 pd=1.33 as=0.14 ps=1.28 w=1 l=0.15
X36 VPWR.t246 VGND.t508 VPWR.t245 VPWR.t244 sky130_fd_pr__pfet_01v8_hvt ad=0.2262 pd=2.26 as=0 ps=0 w=0.87 l=4.73
X37 VGND.t235 a_2939_6549# n_d[0].t6 VGND.t234 sky130_fd_pr__nfet_01v8 ad=0.07035 pd=0.755 as=0.0588 ps=0.7 w=0.42 l=0.15
X38 VPWR.t266 a_3491_6549# y_d[5].t3 VPWR.t265 sky130_fd_pr__pfet_01v8_hvt ad=0.165 pd=1.33 as=0.14 ps=1.28 w=1 l=0.15
X39 a_3309_5309# _01_.t4 a_3237_5309# VGND.t98 sky130_fd_pr__nfet_01v8 ad=0.0441 pd=0.63 as=0.0441 ps=0.63 w=0.42 l=0.15
X40 net1 a_3431_2223# VPWR.t258 VPWR.t257 sky130_fd_pr__pfet_01v8_hvt ad=0.2054 pd=2.1 as=0.11455 ps=1.08 w=0.79 l=0.15
X41 VGND.t94 VPWR.t492 VGND.t93 VGND.t92 sky130_fd_pr__nfet_01v8 ad=0.143 pd=1.62 as=0 ps=0 w=0.55 l=0.59
X42 VPWR.t55 _01_.t5 a_5297_6147# VPWR.t54 sky130_fd_pr__pfet_01v8_hvt ad=0.14575 pd=1.335 as=0.1092 ps=1.36 w=0.42 l=0.15
X43 VGND.t97 VPWR.t493 VGND.t96 VGND.t95 sky130_fd_pr__nfet_01v8 ad=0.143 pd=1.62 as=0 ps=0 w=0.55 l=0.59
X44 VGND.t191 VPWR.t494 VGND.t190 VGND.t189 sky130_fd_pr__nfet_01v8 ad=0.143 pd=1.62 as=0 ps=0 w=0.55 l=4.73
X45 n_d[4].t3 a_5547_7119# VPWR.t469 VPWR.t468 sky130_fd_pr__pfet_01v8_hvt ad=0.14 pd=1.28 as=0.14 ps=1.28 w=1 l=0.15
X46 VPWR.t243 VGND.t509 VPWR.t242 VPWR.t241 sky130_fd_pr__pfet_01v8_hvt ad=0.2262 pd=2.26 as=0 ps=0 w=0.87 l=1.05
X47 y_d[2].t2 a_2387_3027# VPWR.t437 VPWR.t295 sky130_fd_pr__pfet_01v8_hvt ad=0.14 pd=1.28 as=0.3 ps=2.6 w=1 l=0.15
X48 y_d[5].t2 a_3491_6549# VPWR.t264 VPWR.t263 sky130_fd_pr__pfet_01v8_hvt ad=0.14 pd=1.28 as=0.3 ps=2.6 w=1 l=0.15
X49 VPWR.t240 VGND.t510 VPWR.t239 VPWR.t134 sky130_fd_pr__pfet_01v8_hvt ad=0.2262 pd=2.26 as=0 ps=0 w=0.87 l=0.59
X50 VGND.t133 a_5137_2388# net2 VGND.t132 sky130_fd_pr__nfet_01v8 ad=0.0754 pd=0.81 as=0.1352 ps=1.56 w=0.52 l=0.15
X51 a_5008_5487# _01_.t6 a_4924_5487# VGND.t249 sky130_fd_pr__nfet_01v8 ad=0.125125 pd=1.035 as=0.08775 ps=0.92 w=0.65 l=0.15
X52 a_3061_3971# net1 VPWR.t371 VPWR.t370 sky130_fd_pr__pfet_01v8_hvt ad=0.074375 pd=0.815 as=0.0567 ps=0.69 w=0.42 l=0.15
X53 a_4031_6740# _05_ VGND.t206 VGND.t205 sky130_fd_pr__nfet_01v8 ad=0.1352 pd=1.56 as=0.0754 ps=0.81 w=0.52 l=0.15
X54 VGND.t352 a_3859_7379# n_d[1].t6 VGND.t351 sky130_fd_pr__nfet_01v8 ad=0.0588 pd=0.7 as=0.0588 ps=0.7 w=0.42 l=0.15
X55 VPWR.t238 VGND.t511 VPWR.t237 VPWR.t236 sky130_fd_pr__pfet_01v8_hvt ad=0.2262 pd=2.26 as=0 ps=0 w=0.87 l=0.59
X56 a_3057_6147# a_2869_6147# a_2975_6147# VPWR.t429 sky130_fd_pr__pfet_01v8_hvt ad=0.0441 pd=0.63 as=0.1092 ps=1.36 w=0.42 l=0.15
X57 net11 _00_ VPWR.t489 VPWR.t488 sky130_fd_pr__pfet_01v8_hvt ad=0.26 pd=2.52 as=0.165 ps=1.33 w=1 l=0.15
X58 VPWR.t412 a_7437_2388# net3 VPWR.t411 sky130_fd_pr__pfet_01v8_hvt ad=0.11455 pd=1.08 as=0.2054 ps=2.1 w=0.79 l=0.15
X59 VGND.t501 _00_ a_4745_5533# VGND.t500 sky130_fd_pr__nfet_01v8 ad=0.10025 pd=0.985 as=0.1092 ps=1.36 w=0.42 l=0.15
X60 a_2667_3463# _02_ VGND.t402 VGND.t401 sky130_fd_pr__nfet_01v8 ad=0.1092 pd=1.36 as=0.10025 ps=0.985 w=0.42 l=0.15
X61 a_2387_2197# net13 VPWR.t457 VPWR.t376 sky130_fd_pr__pfet_01v8_hvt ad=0.265 pd=2.53 as=0.165 ps=1.33 w=1 l=0.15
X62 a_2667_3463# _02_ VPWR.t395 VPWR.t394 sky130_fd_pr__pfet_01v8_hvt ad=0.1092 pd=1.36 as=0.14575 ps=1.335 w=0.42 l=0.15
X63 a_3755_5639# a_4028_5467# a_3986_5493# VGND.t239 sky130_fd_pr__nfet_01v8 ad=0.107825 pd=1.36 as=0.0441 ps=0.63 w=0.42 l=0.15
X64 VPWR.t235 VGND.t512 VPWR.t234 VPWR.t233 sky130_fd_pr__pfet_01v8_hvt ad=0.2262 pd=2.26 as=0 ps=0 w=0.87 l=4.73
X65 a_3491_6549# net17 VGND.t455 VGND.t454 sky130_fd_pr__nfet_01v8 ad=0.1113 pd=1.37 as=0.07035 ps=0.755 w=0.42 l=0.15
X66 VGND.t194 VPWR.t495 VGND.t193 VGND.t192 sky130_fd_pr__nfet_01v8 ad=0.143 pd=1.62 as=0 ps=0 w=0.55 l=0.59
X67 VGND.t178 net8 a_5547_7119# VGND.t177 sky130_fd_pr__nfet_01v8 ad=0.07035 pd=0.755 as=0.1113 ps=1.37 w=0.42 l=0.15
X68 VGND.t128 VPWR.t496 VGND.t127 VGND.t126 sky130_fd_pr__nfet_01v8 ad=0.143 pd=1.62 as=0 ps=0 w=0.55 l=0.59
X69 net7 a_4745_5533# VPWR.t53 VPWR.t52 sky130_fd_pr__pfet_01v8_hvt ad=0.28 pd=2.56 as=0.1925 ps=1.385 w=1 l=0.15
X70 VPWR.t428 a_5687_6740# net19 VPWR.t427 sky130_fd_pr__pfet_01v8_hvt ad=0.11455 pd=1.08 as=0.2054 ps=2.1 w=0.79 l=0.15
X71 VPWR.t317 a_6099_7119# n_d[7].t1 VPWR.t316 sky130_fd_pr__pfet_01v8_hvt ad=0.14 pd=1.28 as=0.14 ps=1.28 w=1 l=0.15
X72 VGND.t131 VPWR.t497 VGND.t130 VGND.t129 sky130_fd_pr__nfet_01v8 ad=0.143 pd=1.62 as=0 ps=0 w=0.55 l=4.73
X73 VPWR.t286 a_2939_6549# n_d[0].t3 VPWR.t285 sky130_fd_pr__pfet_01v8_hvt ad=0.14 pd=1.28 as=0.14 ps=1.28 w=1 l=0.15
X74 VPWR.t232 VGND.t513 VPWR.t231 VPWR.t230 sky130_fd_pr__pfet_01v8_hvt ad=0.2262 pd=2.26 as=0 ps=0 w=0.87 l=0.59
X75 y_d[6].t2 a_2387_7379# VPWR.t327 VPWR.t326 sky130_fd_pr__pfet_01v8_hvt ad=0.14 pd=1.28 as=0.14 ps=1.28 w=1 l=0.15
X76 VGND.t264 VPWR.t498 VGND.t263 VGND.t262 sky130_fd_pr__nfet_01v8 ad=0.143 pd=1.62 as=0 ps=0 w=0.55 l=0.59
X77 VPWR.t350 a_3859_7379# n_d[1].t3 VPWR.t349 sky130_fd_pr__pfet_01v8_hvt ad=0.14 pd=1.28 as=0.14 ps=1.28 w=1 l=0.15
X78 VPWR.t302 _01_.t7 a_3384_5467# VPWR.t301 sky130_fd_pr__pfet_01v8_hvt ad=0.1092 pd=1.36 as=0.1087 ps=1.36 w=0.42 l=0.15
X79 VGND.t267 VPWR.t499 VGND.t266 VGND.t265 sky130_fd_pr__nfet_01v8 ad=0.143 pd=1.62 as=0 ps=0 w=0.55 l=2.89
X80 VPWR.t93 a_6651_7119# n_d[5].t3 VPWR.t92 sky130_fd_pr__pfet_01v8_hvt ad=0.3 pd=2.6 as=0.14 ps=1.28 w=1 l=0.15
X81 VPWR.t229 VGND.t514 VPWR.t228 VPWR.t128 sky130_fd_pr__pfet_01v8_hvt ad=0.2262 pd=2.26 as=0 ps=0 w=0.87 l=0.59
X82 VPWR.t227 VGND.t515 VPWR.t226 VPWR.t225 sky130_fd_pr__pfet_01v8_hvt ad=0.2262 pd=2.26 as=0 ps=0 w=0.87 l=1.97
X83 VGND.t341 VPWR.t500 VGND.t340 VGND.t15 sky130_fd_pr__nfet_01v8 ad=0.143 pd=1.62 as=0 ps=0 w=0.55 l=0.59
X84 a_3859_7379# net5 VPWR.t402 VPWR.t401 sky130_fd_pr__pfet_01v8_hvt ad=0.265 pd=2.53 as=0.165 ps=1.33 w=1 l=0.15
X85 net1 a_3431_2223# VGND.t210 VGND.t209 sky130_fd_pr__nfet_01v8 ad=0.1352 pd=1.56 as=0.0754 ps=0.81 w=0.52 l=0.15
X86 a_2821_3561# _01_.t8 a_2737_3561# VPWR.t334 sky130_fd_pr__pfet_01v8_hvt ad=0.135 pd=1.27 as=0.135 ps=1.27 w=1 l=0.15
X87 VGND.t314 _01_.t9 net16 VGND.t313 sky130_fd_pr__nfet_01v8 ad=0.10025 pd=0.985 as=0.08775 ps=0.92 w=0.65 l=0.15
X88 VPWR.t37 net3 a_4443_3855# VPWR.t36 sky130_fd_pr__pfet_01v8_hvt ad=0.1625 pd=1.325 as=0.265 ps=2.53 w=1 l=0.15
X89 VPWR.t422 a_3111_5639# _09_ VPWR.t421 sky130_fd_pr__pfet_01v8_hvt ad=0.142225 pd=1.335 as=0.26 ps=2.52 w=1 l=0.15
X90 VPWR.t467 a_5547_7119# n_d[4].t2 VPWR.t466 sky130_fd_pr__pfet_01v8_hvt ad=0.3 pd=2.6 as=0.14 ps=1.28 w=1 l=0.15
X91 VPWR.t456 a_2387_6549# y_d[7].t3 VPWR.t324 sky130_fd_pr__pfet_01v8_hvt ad=0.165 pd=1.33 as=0.14 ps=1.28 w=1 l=0.15
X92 VPWR.t436 a_2387_3027# y_d[2].t1 VPWR.t293 sky130_fd_pr__pfet_01v8_hvt ad=0.14 pd=1.28 as=0.14 ps=1.28 w=1 l=0.15
X93 VPWR.t224 VGND.t516 VPWR.t223 VPWR.t222 sky130_fd_pr__pfet_01v8_hvt ad=0.2262 pd=2.26 as=0 ps=0 w=0.87 l=4.73
X94 VPWR.t487 _00_ a_3045_2767# VPWR.t486 sky130_fd_pr__pfet_01v8_hvt ad=0.26 pd=2.52 as=0.135 ps=1.27 w=1 l=0.15
X95 a_2821_4943# _02_ a_2737_4943# VPWR.t393 sky130_fd_pr__pfet_01v8_hvt ad=0.135 pd=1.27 as=0.135 ps=1.27 w=1 l=0.15
X96 VGND.t418 a_7437_2388# net3 VGND.t417 sky130_fd_pr__nfet_01v8 ad=0.0754 pd=0.81 as=0.1352 ps=1.56 w=0.52 l=0.15
X97 net10 _00_ VPWR.t485 VPWR.t484 sky130_fd_pr__pfet_01v8_hvt ad=0.135 pd=1.27 as=0.14575 ps=1.335 w=1 l=0.15
X98 n_d[4].t1 a_5547_7119# VPWR.t465 VPWR.t464 sky130_fd_pr__pfet_01v8_hvt ad=0.14 pd=1.28 as=0.165 ps=1.33 w=1 l=0.15
X99 y_d[7].t2 a_2387_6549# VPWR.t455 VPWR.t322 sky130_fd_pr__pfet_01v8_hvt ad=0.14 pd=1.28 as=0.3 ps=2.6 w=1 l=0.15
X100 VGND.t70 a_4167_3311# _02_ VGND.t69 sky130_fd_pr__nfet_01v8 ad=0.1092 pd=1.36 as=0.0567 ps=0.69 w=0.42 l=0.15
X101 _06_ a_3061_3971# VGND.t475 VGND.t474 sky130_fd_pr__nfet_01v8 ad=0.169 pd=1.82 as=0.122275 ps=1.08 w=0.65 l=0.15
X102 a_2387_5461# net16 VGND.t358 VGND.t357 sky130_fd_pr__nfet_01v8 ad=0.1113 pd=1.37 as=0.07035 ps=0.755 w=0.42 l=0.15
X103 _00_ a_4443_3855# VPWR.t313 VPWR.t312 sky130_fd_pr__pfet_01v8_hvt ad=0.135 pd=1.27 as=0.1625 ps=1.325 w=1 l=0.15
X104 a_3111_5639# net3 VPWR.t35 VPWR.t34 sky130_fd_pr__pfet_01v8_hvt ad=0.074375 pd=0.815 as=0.142225 ps=1.335 w=0.42 l=0.15
X105 a_2961_3855# _00_ VPWR.t483 VPWR.t482 sky130_fd_pr__pfet_01v8_hvt ad=0.1087 pd=1.36 as=0.1092 ps=1.36 w=0.42 l=0.15
X106 a_3261_5493# net3 VGND.t46 VGND.t45 sky130_fd_pr__nfet_01v8 ad=0.05355 pd=0.675 as=0.122275 ps=1.08 w=0.42 l=0.15
X107 VGND.t433 a_5687_6740# net19 VGND.t432 sky130_fd_pr__nfet_01v8 ad=0.0754 pd=0.81 as=0.1352 ps=1.56 w=0.52 l=0.15
X108 VPWR.t221 VGND.t517 VPWR.t220 VPWR.t169 sky130_fd_pr__pfet_01v8_hvt ad=0.2262 pd=2.26 as=0 ps=0 w=0.87 l=0.59
X109 n_d[7].t0 a_6099_7119# VPWR.t315 VPWR.t314 sky130_fd_pr__pfet_01v8_hvt ad=0.14 pd=1.28 as=0.14 ps=1.28 w=1 l=0.15
X110 n_d[0].t2 a_2939_6549# VPWR.t284 VPWR.t283 sky130_fd_pr__pfet_01v8_hvt ad=0.14 pd=1.28 as=0.14 ps=1.28 w=1 l=0.15
X111 VGND.t147 net12 a_2879_2223# VGND.t146 sky130_fd_pr__nfet_01v8 ad=0.07035 pd=0.755 as=0.1113 ps=1.37 w=0.42 l=0.15
X112 VPWR.t369 net1 a_3707_3311# VPWR.t368 sky130_fd_pr__pfet_01v8_hvt ad=0.1625 pd=1.325 as=0.265 ps=2.53 w=1 l=0.15
X113 VPWR.t219 VGND.t518 VPWR.t218 VPWR.t166 sky130_fd_pr__pfet_01v8_hvt ad=0.2262 pd=2.26 as=0 ps=0 w=0.87 l=0.59
X114 VGND.t344 VPWR.t501 VGND.t343 VGND.t342 sky130_fd_pr__nfet_01v8 ad=0.143 pd=1.62 as=0 ps=0 w=0.55 l=2.89
X115 VPWR.t358 a_4399_7338# net5 VPWR.t357 sky130_fd_pr__pfet_01v8_hvt ad=0.11455 pd=1.08 as=0.2054 ps=2.1 w=0.79 l=0.15
X116 VGND.t400 _02_ a_4028_5467# VGND.t399 sky130_fd_pr__nfet_01v8 ad=0.1092 pd=1.36 as=0.10785 ps=1.36 w=0.42 l=0.15
X117 VGND.t44 net3 a_2975_6147# VGND.t43 sky130_fd_pr__nfet_01v8 ad=0.10025 pd=0.985 as=0.0567 ps=0.69 w=0.42 l=0.15
X118 net7 _02_ VPWR.t392 VPWR.t391 sky130_fd_pr__pfet_01v8_hvt ad=0.135 pd=1.27 as=0.14575 ps=1.335 w=1 l=0.15
X119 VGND.t259 VPWR.t502 VGND.t258 VGND.t257 sky130_fd_pr__nfet_01v8 ad=0.143 pd=1.62 as=0 ps=0 w=0.55 l=4.73
X120 VGND.t108 net11 a_6099_7119# VGND.t107 sky130_fd_pr__nfet_01v8 ad=0.07035 pd=0.755 as=0.1113 ps=1.37 w=0.42 l=0.15
X121 net12 _01_.t10 VGND.t272 VGND.t271 sky130_fd_pr__nfet_01v8 ad=0.08775 pd=0.92 as=0.08775 ps=0.92 w=0.65 l=0.15
X122 n_d[2].t7 a_3307_7379# VGND.t143 VGND.t142 sky130_fd_pr__nfet_01v8 ad=0.0588 pd=0.7 as=0.1218 ps=1.42 w=0.42 l=0.15
X123 VGND.t378 net1 a_2376_6263# VGND.t377 sky130_fd_pr__nfet_01v8 ad=0.0567 pd=0.69 as=0.0567 ps=0.69 w=0.42 l=0.15
X124 VPWR.t217 VGND.t519 VPWR.t216 VPWR.t107 sky130_fd_pr__pfet_01v8_hvt ad=0.2262 pd=2.26 as=0 ps=0 w=0.87 l=0.59
X125 y_d[2].t0 a_2387_3027# VPWR.t435 VPWR.t291 sky130_fd_pr__pfet_01v8_hvt ad=0.14 pd=1.28 as=0.14 ps=1.28 w=1 l=0.15
X126 a_3019_7338# _09_ VPWR.t85 VPWR.t84 sky130_fd_pr__pfet_01v8_hvt ad=0.2054 pd=2.1 as=0.11455 ps=1.08 w=0.79 l=0.15
X127 VGND.t274 _01_.t11 a_5297_6147# VGND.t273 sky130_fd_pr__nfet_01v8 ad=0.10025 pd=0.985 as=0.1092 ps=1.36 w=0.42 l=0.15
X128 net17 a_3615_4943# VPWR.t57 VPWR.t56 sky130_fd_pr__pfet_01v8_hvt ad=0.2054 pd=2.1 as=0.11455 ps=1.08 w=0.79 l=0.15
X129 VPWR.t463 a_5547_7119# n_d[4].t0 VPWR.t462 sky130_fd_pr__pfet_01v8_hvt ad=0.14 pd=1.28 as=0.14 ps=1.28 w=1 l=0.15
X130 VPWR.t454 a_2387_6549# y_d[7].t1 VPWR.t328 sky130_fd_pr__pfet_01v8_hvt ad=0.14 pd=1.28 as=0.14 ps=1.28 w=1 l=0.15
X131 VPWR.t444 a_2376_6263# _03_ VPWR.t443 sky130_fd_pr__pfet_01v8_hvt ad=0.14825 pd=1.34 as=0.28 ps=2.56 w=1 l=0.15
X132 VPWR.t215 VGND.t520 VPWR.t214 VPWR.t213 sky130_fd_pr__pfet_01v8_hvt ad=0.2262 pd=2.26 as=0 ps=0 w=0.87 l=4.73
X133 n_d[2].t3 a_3307_7379# VPWR.t71 VPWR.t70 sky130_fd_pr__pfet_01v8_hvt ad=0.14 pd=1.28 as=0.3 ps=2.6 w=1 l=0.15
X134 VPWR.t212 VGND.t521 VPWR.t211 VPWR.t210 sky130_fd_pr__pfet_01v8_hvt ad=0.2262 pd=2.26 as=0 ps=0 w=0.87 l=2.89
X135 _01_.t3 a_3707_3311# VGND.t64 VGND.t63 sky130_fd_pr__nfet_01v8 ad=0.0567 pd=0.69 as=0.06825 ps=0.745 w=0.42 l=0.15
X136 VPWR.t282 a_2939_6549# n_d[0].t1 VPWR.t281 sky130_fd_pr__pfet_01v8_hvt ad=0.165 pd=1.33 as=0.14 ps=1.28 w=1 l=0.15
X137 n_d[5].t7 a_6651_7119# VGND.t204 VGND.t203 sky130_fd_pr__nfet_01v8 ad=0.0588 pd=0.7 as=0.07035 ps=0.755 w=0.42 l=0.15
X138 a_3307_7379# net6 VPWR.t352 VPWR.t351 sky130_fd_pr__pfet_01v8_hvt ad=0.265 pd=2.53 as=0.165 ps=1.33 w=1 l=0.15
X139 VGND.t42 net3 a_3619_6147# VGND.t41 sky130_fd_pr__nfet_01v8 ad=0.10025 pd=0.985 as=0.0567 ps=0.69 w=0.42 l=0.15
X140 y_d[3].t7 a_2387_4373# VGND.t416 VGND.t415 sky130_fd_pr__nfet_01v8 ad=0.0588 pd=0.7 as=0.0588 ps=0.7 w=0.42 l=0.15
X141 a_3342_5493# net2 a_3261_5493# VGND.t32 sky130_fd_pr__nfet_01v8 ad=0.0441 pd=0.63 as=0.05355 ps=0.675 w=0.42 l=0.15
X142 net13 _02_ VGND.t398 VGND.t397 sky130_fd_pr__nfet_01v8 ad=0.08775 pd=0.92 as=0.08775 ps=0.92 w=0.65 l=0.15
X143 VGND.t261 VPWR.t503 VGND.t260 VGND.t168 sky130_fd_pr__nfet_01v8 ad=0.143 pd=1.62 as=0 ps=0 w=0.55 l=0.59
X144 a_2737_3561# a_2667_3463# net14 VPWR.t430 sky130_fd_pr__pfet_01v8_hvt ad=0.135 pd=1.27 as=0.32 ps=2.64 w=1 l=0.15
X145 a_4249_6147# net3 VPWR.t33 VPWR.t32 sky130_fd_pr__pfet_01v8_hvt ad=0.1092 pd=1.36 as=0.1092 ps=1.36 w=0.42 l=0.15
X146 _02_ a_4167_3311# VPWR.t51 VPWR.t50 sky130_fd_pr__pfet_01v8_hvt ad=0.135 pd=1.27 as=0.1625 ps=1.325 w=1 l=0.15
X147 n_d[1].t2 a_3859_7379# VPWR.t348 VPWR.t347 sky130_fd_pr__pfet_01v8_hvt ad=0.14 pd=1.28 as=0.3 ps=2.6 w=1 l=0.15
X148 VGND.t50 VPWR.t504 VGND.t49 VGND.t48 sky130_fd_pr__nfet_01v8 ad=0.143 pd=1.62 as=0 ps=0 w=0.55 l=0.59
X149 VPWR.t333 _01_.t12 net11 VPWR.t332 sky130_fd_pr__pfet_01v8_hvt ad=0.165 pd=1.33 as=0.135 ps=1.27 w=1 l=0.15
X150 VPWR.t22 net2 a_3111_5639# VPWR.t21 sky130_fd_pr__pfet_01v8_hvt ad=0.0567 pd=0.69 as=0.074375 ps=0.815 w=0.42 l=0.15
X151 VPWR.t43 a_3707_3311# _01_.t0 VPWR.t42 sky130_fd_pr__pfet_01v8_hvt ad=0.26 pd=2.52 as=0.135 ps=1.27 w=1 l=0.15
X152 VPWR.t298 a_2387_2197# y_d[1].t3 VPWR.t297 sky130_fd_pr__pfet_01v8_hvt ad=0.165 pd=1.33 as=0.14 ps=1.28 w=1 l=0.15
X153 net17 a_3615_4943# VGND.t100 VGND.t99 sky130_fd_pr__nfet_01v8 ad=0.1352 pd=1.56 as=0.0754 ps=0.81 w=0.52 l=0.15
X154 a_2737_4943# a_2667_5175# net16 VPWR.t10 sky130_fd_pr__pfet_01v8_hvt ad=0.135 pd=1.27 as=0.32 ps=2.64 w=1 l=0.15
X155 VGND.t350 a_3859_7379# n_d[1].t5 VGND.t349 sky130_fd_pr__nfet_01v8 ad=0.07035 pd=0.755 as=0.0588 ps=0.7 w=0.42 l=0.15
X156 VPWR.t209 VGND.t522 VPWR.t208 VPWR.t142 sky130_fd_pr__pfet_01v8_hvt ad=0.2262 pd=2.26 as=0 ps=0 w=0.87 l=4.73
X157 net10 a_5297_6147# a_5560_6351# VGND.t47 sky130_fd_pr__nfet_01v8 ad=0.182 pd=1.86 as=0.125125 ps=1.035 w=0.65 l=0.15
X158 VPWR.t342 a_7111_6575# n_d[6].t3 VPWR.t341 sky130_fd_pr__pfet_01v8_hvt ad=0.3 pd=2.6 as=0.14 ps=1.28 w=1 l=0.15
X159 VPWR.t432 a_4307_6740# net4 VPWR.t431 sky130_fd_pr__pfet_01v8_hvt ad=0.11455 pd=1.08 as=0.2054 ps=2.1 w=0.79 l=0.15
X160 VPWR.t207 VGND.t523 VPWR.t206 VPWR.t197 sky130_fd_pr__pfet_01v8_hvt ad=0.2262 pd=2.26 as=0 ps=0 w=0.87 l=0.59
X161 y_d[7].t0 a_2387_6549# VPWR.t453 VPWR.t326 sky130_fd_pr__pfet_01v8_hvt ad=0.14 pd=1.28 as=0.14 ps=1.28 w=1 l=0.15
X162 y_d[1].t2 a_2387_2197# VPWR.t296 VPWR.t295 sky130_fd_pr__pfet_01v8_hvt ad=0.14 pd=1.28 as=0.3 ps=2.6 w=1 l=0.15
X163 VPWR.t481 _00_ a_3373_3561# VPWR.t480 sky130_fd_pr__pfet_01v8_hvt ad=0.14575 pd=1.335 as=0.135 ps=1.27 w=1 l=0.15
X164 VPWR.t205 VGND.t524 VPWR.t204 VPWR.t203 sky130_fd_pr__pfet_01v8_hvt ad=0.2262 pd=2.26 as=0 ps=0 w=0.87 l=2.89
X165 a_3513_6147# net2 VPWR.t20 VPWR.t19 sky130_fd_pr__pfet_01v8_hvt ad=0.1092 pd=1.36 as=0.1092 ps=1.36 w=0.42 l=0.15
X166 VGND.t202 a_6651_7119# n_d[5].t6 VGND.t201 sky130_fd_pr__nfet_01v8 ad=0.0588 pd=0.7 as=0.0588 ps=0.7 w=0.42 l=0.15
X167 VGND.t52 VPWR.t505 VGND.t51 VGND.t48 sky130_fd_pr__nfet_01v8 ad=0.143 pd=1.62 as=0 ps=0 w=0.55 l=0.59
X168 a_4399_7338# _04_ VGND.t384 VGND.t383 sky130_fd_pr__nfet_01v8 ad=0.1352 pd=1.56 as=0.0754 ps=0.81 w=0.52 l=0.15
X169 a_2387_3027# net14 VGND.t382 VGND.t381 sky130_fd_pr__nfet_01v8 ad=0.1113 pd=1.37 as=0.07035 ps=0.755 w=0.42 l=0.15
X170 _10_ a_3155_5056# VPWR.t12 VPWR.t11 sky130_fd_pr__pfet_01v8_hvt ad=0.26 pd=2.52 as=0.142225 ps=1.335 w=1 l=0.15
X171 VGND.t380 net10 a_7111_6575# VGND.t379 sky130_fd_pr__nfet_01v8 ad=0.07035 pd=0.755 as=0.1113 ps=1.37 w=0.42 l=0.15
X172 VPWR.t202 VGND.t525 VPWR.t201 VPWR.t200 sky130_fd_pr__pfet_01v8_hvt ad=0.2262 pd=2.26 as=0 ps=0 w=0.87 l=1.05
X173 VGND.t57 VPWR.t506 VGND.t56 VGND.t55 sky130_fd_pr__nfet_01v8 ad=0.143 pd=1.62 as=0 ps=0 w=0.55 l=2.89
X174 a_5560_6351# _02_ a_5476_6351# VGND.t396 sky130_fd_pr__nfet_01v8 ad=0.125125 pd=1.035 as=0.08775 ps=0.92 w=0.65 l=0.15
X175 VPWR.t346 a_3859_7379# n_d[1].t1 VPWR.t345 sky130_fd_pr__pfet_01v8_hvt ad=0.165 pd=1.33 as=0.14 ps=1.28 w=1 l=0.15
X176 a_2387_4373# net15 VPWR.t83 VPWR.t82 sky130_fd_pr__pfet_01v8_hvt ad=0.265 pd=2.53 as=0.165 ps=1.33 w=1 l=0.15
X177 _04_ a_2975_6147# VPWR.t426 VPWR.t425 sky130_fd_pr__pfet_01v8_hvt ad=0.275 pd=2.55 as=0.14825 ps=1.34 w=1 l=0.15
X178 VGND.t414 a_2387_4373# y_d[3].t6 VGND.t413 sky130_fd_pr__nfet_01v8 ad=0.07035 pd=0.755 as=0.0588 ps=0.7 w=0.42 l=0.15
X179 n_d[2].t6 a_3307_7379# VGND.t141 VGND.t140 sky130_fd_pr__nfet_01v8 ad=0.0588 pd=0.7 as=0.0588 ps=0.7 w=0.42 l=0.15
X180 VGND.t60 VPWR.t507 VGND.t59 VGND.t58 sky130_fd_pr__nfet_01v8 ad=0.143 pd=1.62 as=0 ps=0 w=0.55 l=0.59
X181 a_2387_2197# net13 VGND.t471 VGND.t470 sky130_fd_pr__nfet_01v8 ad=0.1113 pd=1.37 as=0.07035 ps=0.755 w=0.42 l=0.15
X182 VGND.t14 VPWR.t508 VGND.t13 VGND.t12 sky130_fd_pr__nfet_01v8 ad=0.143 pd=1.62 as=0 ps=0 w=0.55 l=1.05
X183 y_d[3].t5 a_2387_4373# VGND.t412 VGND.t411 sky130_fd_pr__nfet_01v8 ad=0.0588 pd=0.7 as=0.1218 ps=1.42 w=0.42 l=0.15
X184 a_2667_5175# _00_ VPWR.t479 VPWR.t478 sky130_fd_pr__pfet_01v8_hvt ad=0.1092 pd=1.36 as=0.14575 ps=1.335 w=0.42 l=0.15
X185 VPWR.t199 VGND.t526 VPWR.t198 VPWR.t197 sky130_fd_pr__pfet_01v8_hvt ad=0.2262 pd=2.26 as=0 ps=0 w=0.87 l=0.59
X186 VGND.t17 VPWR.t509 VGND.t16 VGND.t15 sky130_fd_pr__nfet_01v8 ad=0.143 pd=1.62 as=0 ps=0 w=0.55 l=0.59
X187 VPWR.t79 net8 a_5547_7119# VPWR.t78 sky130_fd_pr__pfet_01v8_hvt ad=0.165 pd=1.33 as=0.265 ps=2.53 w=1 l=0.15
X188 a_4779_7379# net7 VGND.t145 VGND.t144 sky130_fd_pr__nfet_01v8 ad=0.1113 pd=1.37 as=0.07035 ps=0.755 w=0.42 l=0.15
X189 VPWR.t196 VGND.t527 VPWR.t195 VPWR.t194 sky130_fd_pr__pfet_01v8_hvt ad=0.2262 pd=2.26 as=0 ps=0 w=0.87 l=1.97
X190 VGND.t122 VPWR.t510 VGND.t121 VGND.t120 sky130_fd_pr__nfet_01v8 ad=0.143 pd=1.62 as=0 ps=0 w=0.55 l=2.89
X191 VGND.t439 a_4307_6740# net4 VGND.t438 sky130_fd_pr__nfet_01v8 ad=0.0754 pd=0.81 as=0.1352 ps=1.56 w=0.52 l=0.15
X192 VPWR.t193 VGND.t528 VPWR.t192 VPWR.t191 sky130_fd_pr__pfet_01v8_hvt ad=0.2262 pd=2.26 as=0 ps=0 w=0.87 l=4.73
X193 VPWR.t190 VGND.t529 VPWR.t189 VPWR.t188 sky130_fd_pr__pfet_01v8_hvt ad=0.2262 pd=2.26 as=0 ps=0 w=0.87 l=0.59
X194 a_3289_3561# a_3219_3463# net13 VPWR.t309 sky130_fd_pr__pfet_01v8_hvt ad=0.135 pd=1.27 as=0.32 ps=2.64 w=1 l=0.15
X195 VPWR.t294 a_2387_2197# y_d[1].t1 VPWR.t293 sky130_fd_pr__pfet_01v8_hvt ad=0.14 pd=1.28 as=0.14 ps=1.28 w=1 l=0.15
X196 a_4355_6147# net2 VGND.t31 VGND.t30 sky130_fd_pr__nfet_01v8 ad=0.0567 pd=0.69 as=0.0567 ps=0.69 w=0.42 l=0.15
X197 a_3571_4074# _06_ VPWR.t450 VPWR.t449 sky130_fd_pr__pfet_01v8_hvt ad=0.2054 pd=2.1 as=0.11455 ps=1.08 w=0.79 l=0.15
X198 VPWR.t187 VGND.t530 VPWR.t186 VPWR.t185 sky130_fd_pr__pfet_01v8_hvt ad=0.2262 pd=2.26 as=0 ps=0 w=0.87 l=2.89
X199 a_2869_6147# net1 VPWR.t367 VPWR.t366 sky130_fd_pr__pfet_01v8_hvt ad=0.1092 pd=1.36 as=0.1092 ps=1.36 w=0.42 l=0.15
X200 a_5687_6740# _10_ VPWR.t278 VPWR.t277 sky130_fd_pr__pfet_01v8_hvt ad=0.2054 pd=2.1 as=0.11455 ps=1.08 w=0.79 l=0.15
X201 n_d[5].t5 a_6651_7119# VGND.t200 VGND.t199 sky130_fd_pr__nfet_01v8 ad=0.0588 pd=0.7 as=0.0588 ps=0.7 w=0.42 l=0.15
X202 VPWR.t340 a_7111_6575# n_d[6].t2 VPWR.t339 sky130_fd_pr__pfet_01v8_hvt ad=0.14 pd=1.28 as=0.14 ps=1.28 w=1 l=0.15
X203 a_2387_7379# net18 VGND.t238 VGND.t237 sky130_fd_pr__nfet_01v8 ad=0.1113 pd=1.37 as=0.07035 ps=0.755 w=0.42 l=0.15
X204 net14 _01_.t13 VGND.t312 VGND.t311 sky130_fd_pr__nfet_01v8 ad=0.08775 pd=0.92 as=0.08775 ps=0.92 w=0.65 l=0.15
X205 _05_ a_3619_6147# VPWR.t452 VPWR.t451 sky130_fd_pr__pfet_01v8_hvt ad=0.275 pd=2.55 as=0.14825 ps=1.34 w=1 l=0.15
X206 VPWR.t400 a_4031_6740# net6 VPWR.t399 sky130_fd_pr__pfet_01v8_hvt ad=0.11455 pd=1.08 as=0.2054 ps=2.1 w=0.79 l=0.15
X207 VGND.t125 VPWR.t511 VGND.t124 VGND.t123 sky130_fd_pr__nfet_01v8 ad=0.143 pd=1.62 as=0 ps=0 w=0.55 l=1.97
X208 net9 a_5849_6147# a_6112_6351# VGND.t385 sky130_fd_pr__nfet_01v8 ad=0.182 pd=1.86 as=0.125125 ps=1.035 w=0.65 l=0.15
X209 VGND.t305 VPWR.t512 VGND.t304 VGND.t303 sky130_fd_pr__nfet_01v8 ad=0.143 pd=1.62 as=0 ps=0 w=0.55 l=1.05
X210 VPWR.t184 VGND.t531 VPWR.t183 VPWR.t182 sky130_fd_pr__pfet_01v8_hvt ad=0.2262 pd=2.26 as=0 ps=0 w=0.87 l=4.73
X211 VPWR.t181 VGND.t532 VPWR.t180 VPWR.t179 sky130_fd_pr__pfet_01v8_hvt ad=0.2262 pd=2.26 as=0 ps=0 w=0.87 l=1.05
X212 VGND.t139 a_3307_7379# n_d[2].t5 VGND.t138 sky130_fd_pr__nfet_01v8 ad=0.07035 pd=0.755 as=0.0588 ps=0.7 w=0.42 l=0.15
X213 VGND.t395 _02_ a_3309_5309# VGND.t394 sky130_fd_pr__nfet_01v8 ad=0.13165 pd=1.14 as=0.0441 ps=0.63 w=0.42 l=0.15
X214 a_2387_6549# net19 VGND.t366 VGND.t365 sky130_fd_pr__nfet_01v8 ad=0.1113 pd=1.37 as=0.07035 ps=0.755 w=0.42 l=0.15
X215 VPWR.t18 net2 a_3061_3971# VPWR.t17 sky130_fd_pr__pfet_01v8_hvt ad=0.142225 pd=1.335 as=0.074375 ps=0.815 w=0.42 l=0.15
X216 a_2607_6147# net1 a_2511_6147# VPWR.t365 sky130_fd_pr__pfet_01v8_hvt ad=0.0441 pd=0.63 as=0.0693 ps=0.75 w=0.42 l=0.15
X217 VGND.t294 a_6099_7119# n_d[7].t7 VGND.t293 sky130_fd_pr__nfet_01v8 ad=0.1218 pd=1.42 as=0.0588 ps=0.7 w=0.42 l=0.15
X218 VGND.t308 VPWR.t513 VGND.t307 VGND.t306 sky130_fd_pr__nfet_01v8 ad=0.143 pd=1.62 as=0 ps=0 w=0.55 l=4.73
X219 VPWR.t97 a_3755_5639# _08_ VPWR.t96 sky130_fd_pr__pfet_01v8_hvt ad=0.142225 pd=1.335 as=0.26 ps=2.52 w=1 l=0.15
X220 VPWR.t477 _00_ a_2821_3561# VPWR.t476 sky130_fd_pr__pfet_01v8_hvt ad=0.14575 pd=1.335 as=0.135 ps=1.27 w=1 l=0.15
X221 VGND.t410 a_2387_4373# y_d[3].t4 VGND.t409 sky130_fd_pr__nfet_01v8 ad=0.0588 pd=0.7 as=0.0588 ps=0.7 w=0.42 l=0.15
X222 a_6112_6351# _01_.t14 a_6028_6351# VGND.t270 sky130_fd_pr__nfet_01v8 ad=0.125125 pd=1.035 as=0.08775 ps=0.92 w=0.65 l=0.15
X223 a_4249_6147# net3 VGND.t40 VGND.t39 sky130_fd_pr__nfet_01v8 ad=0.1092 pd=1.36 as=0.1092 ps=1.36 w=0.42 l=0.15
X224 VPWR.t178 VGND.t533 VPWR.t177 VPWR.t125 sky130_fd_pr__pfet_01v8_hvt ad=0.2262 pd=2.26 as=0 ps=0 w=0.87 l=0.59
X225 VPWR.t176 VGND.t534 VPWR.t175 VPWR.t174 sky130_fd_pr__pfet_01v8_hvt ad=0.2262 pd=2.26 as=0 ps=0 w=0.87 l=4.73
X226 a_3129_6147# net2 a_3057_6147# VPWR.t16 sky130_fd_pr__pfet_01v8_hvt ad=0.06825 pd=0.745 as=0.0441 ps=0.63 w=0.42 l=0.15
X227 VPWR.t173 VGND.t535 VPWR.t172 VPWR.t122 sky130_fd_pr__pfet_01v8_hvt ad=0.2262 pd=2.26 as=0 ps=0 w=0.87 l=0.59
X228 n_d[0].t5 a_2939_6549# VGND.t233 VGND.t232 sky130_fd_pr__nfet_01v8 ad=0.0588 pd=0.7 as=0.1218 ps=1.42 w=0.42 l=0.15
X229 VGND.t88 VPWR.t514 VGND.t87 VGND.t86 sky130_fd_pr__nfet_01v8 ad=0.143 pd=1.62 as=0 ps=0 w=0.55 l=4.73
X230 n_d[7].t6 a_6099_7119# VGND.t292 VGND.t291 sky130_fd_pr__nfet_01v8 ad=0.0588 pd=0.7 as=0.07035 ps=0.755 w=0.42 l=0.15
X231 VGND.t91 VPWR.t515 VGND.t90 VGND.t89 sky130_fd_pr__nfet_01v8 ad=0.143 pd=1.62 as=0 ps=0 w=0.55 l=4.73
X232 VGND.t376 net1 a_3707_3311# VGND.t375 sky130_fd_pr__nfet_01v8 ad=0.06825 pd=0.745 as=0.1113 ps=1.37 w=0.42 l=0.15
X233 VPWR.t75 in[0].t0 a_3431_2223# VPWR.t74 sky130_fd_pr__pfet_01v8_hvt ad=0.11455 pd=1.08 as=0.2054 ps=2.1 w=0.79 l=0.15
X234 VPWR.t308 _01_.t15 a_2821_4943# VPWR.t307 sky130_fd_pr__pfet_01v8_hvt ad=0.14575 pd=1.335 as=0.135 ps=1.27 w=1 l=0.15
X235 VPWR.t69 a_3307_7379# n_d[2].t2 VPWR.t68 sky130_fd_pr__pfet_01v8_hvt ad=0.165 pd=1.33 as=0.14 ps=1.28 w=1 l=0.15
X236 y_d[1].t0 a_2387_2197# VPWR.t292 VPWR.t291 sky130_fd_pr__pfet_01v8_hvt ad=0.14 pd=1.28 as=0.14 ps=1.28 w=1 l=0.15
X237 VPWR.t424 a_2961_3855# a_3061_3971# VPWR.t423 sky130_fd_pr__pfet_01v8_hvt ad=0.0567 pd=0.69 as=0.1085 ps=1.36 w=0.42 l=0.15
X238 _07_ a_4355_6147# VGND.t310 VGND.t309 sky130_fd_pr__nfet_01v8 ad=0.17875 pd=1.85 as=0.10025 ps=0.985 w=0.65 l=0.15
X239 a_5687_6740# _10_ VGND.t229 VGND.t228 sky130_fd_pr__nfet_01v8 ad=0.1352 pd=1.56 as=0.0754 ps=0.81 w=0.52 l=0.15
X240 n_d[1].t4 a_3859_7379# VGND.t348 VGND.t347 sky130_fd_pr__nfet_01v8 ad=0.0588 pd=0.7 as=0.0588 ps=0.7 w=0.42 l=0.15
X241 a_3755_5639# net3 VPWR.t31 VPWR.t30 sky130_fd_pr__pfet_01v8_hvt ad=0.074375 pd=0.815 as=0.142225 ps=1.335 w=0.42 l=0.15
X242 a_5353_6575# _02_ VGND.t393 VGND.t392 sky130_fd_pr__nfet_01v8 ad=0.08775 pd=0.92 as=0.169 ps=1.82 w=0.65 l=0.15
X243 n_d[6].t1 a_7111_6575# VPWR.t338 VPWR.t337 sky130_fd_pr__pfet_01v8_hvt ad=0.14 pd=1.28 as=0.14 ps=1.28 w=1 l=0.15
X244 VPWR.t171 VGND.t536 VPWR.t170 VPWR.t169 sky130_fd_pr__pfet_01v8_hvt ad=0.2262 pd=2.26 as=0 ps=0 w=0.87 l=0.59
X245 VGND.t406 a_4031_6740# net6 VGND.t405 sky130_fd_pr__nfet_01v8 ad=0.0754 pd=0.81 as=0.1352 ps=1.56 w=0.52 l=0.15
X246 VPWR.t311 a_4443_3855# _00_ VPWR.t310 sky130_fd_pr__pfet_01v8_hvt ad=0.26 pd=2.52 as=0.135 ps=1.27 w=1 l=0.15
X247 a_3905_5493# net3 VGND.t38 VGND.t37 sky130_fd_pr__nfet_01v8 ad=0.05355 pd=0.675 as=0.122275 ps=1.08 w=0.42 l=0.15
X248 VPWR.t59 net11 a_6099_7119# VPWR.t58 sky130_fd_pr__pfet_01v8_hvt ad=0.165 pd=1.33 as=0.265 ps=2.53 w=1 l=0.15
X249 VPWR.t168 VGND.t537 VPWR.t167 VPWR.t166 sky130_fd_pr__pfet_01v8_hvt ad=0.2262 pd=2.26 as=0 ps=0 w=0.87 l=0.59
X250 VPWR.t29 net3 a_3129_6147# VPWR.t28 sky130_fd_pr__pfet_01v8_hvt ad=0.14825 pd=1.34 as=0.06825 ps=0.745 w=0.42 l=0.15
X251 VGND.t167 VPWR.t516 VGND.t166 VGND.t165 sky130_fd_pr__nfet_01v8 ad=0.143 pd=1.62 as=0 ps=0 w=0.55 l=4.73
X252 a_3513_6147# net2 VGND.t29 VGND.t28 sky130_fd_pr__nfet_01v8 ad=0.1092 pd=1.36 as=0.1092 ps=1.36 w=0.42 l=0.15